STB32/STSB32/STSB32_CASO_BASE_LEONARDO_2AORDEM.PWF
TITU
Caso_Base_Leonardo_Confiabilidade_Segunda_Ordem                                 
DCTE
(Mn) ( Val) (Mn) ( Val) (Mn) ( Val) (Mn) ( Val) (Mn) ( Val) (Mn) ( Val) 
BASE   100. DASE   100. TEPA     .1 EXST     .4 TETP     5. TBPA     5.
TLPP     1. TEPR     .1 QLST     .4 TLPR     .1 TLPQ     2. TSBZ    .01
TSBA     5. ASTP    .05 VSTP     5. TLVC     .5 TLTC     .1 TSFR  .1E-7
ZMAX   500. TLPV     .5 VDVM   200. VDVN    40. TUDC   .001 TADC    .01
PGER    30. TPST     .2 VFLD    70. ZMIN   .001 HIST    470 LFIT     10
ACIT     30 LFCV      1 DCIT     10 VSIT     10 LPIT     50 LFLP     10
PDIT     10 LCRT    200 LPRT     60 CSTP     5. ASDC     1.
ICIT   9999 DMAX      5 FDIV     2. ICMN    .05 VART     5. TSTP     33
ICMV     .5 APAS    90. CPAR    70. VAVT     2. VAVF     5. VMVF    15.
VPVT     2. VPVF     5. VPMF    10. VSVF    20. VINF     1. VSUP     1.
TLSI     0. NDIR    20. STTR     5. TRPT   100. STIR     1. BFPO     1.
LFPO     .1 TLMT     1. TLMF     1. TLMG     1. PARS    10.            
99999
DBAR
(Num)OETGb(   nome   )Gl( V)( A)( Pg)( Qg)( Qn)( Qm)(Bc  )( Pl)( Ql)( Sh)Are(Vf)M(1)(2)(3)(4)(5)(6)(7)(8)(9)(10
  814 L  EBATEIAS-230  A1000-2.6                                           21000                                   
  839 L  ECASCAV-PR230 A 99915.7                                           21000                                   
  856 L1 BSEGRED-PR525 B10189.74451.6-81.7-465. 465.                       11000                                   
  895 L  BBATEIA-PR525 B1003-.83                                           31000                                   
  896 L  BCASCOE-PR525 B100718.9                          -181788.21       31000                                   
  897 L1 BSCAXIA-PR525 B101516.8443.9-37.6-465. 465.                       11000                                   
  933 L1 BAREIA--PR525 B10127.09 598.-403.-800. 800.                       11000                                   
  934 L  EAREIA-230    A10035.56                          220.153.39       21000                                   
  938 L  BBLUMEN-SC525 B 994-10.                                           11000                                   
  939 L  EBLUMEN-SC230 A1000-14.                          454.3166.7       21000                                   
  946 L  BBIGUAC-SC525 B1011-10.                                           11000                                   
  947 L  EBIGUAC-SC230 A1000-13.                                           21000                                   
  955 L2 BCNOVOS-SC525 B1010  0.2681.-410.-450. 450.      579.441.74       11000                                   
  959 L  BCURITI-PR525 B1005-2.5                          248.5-217.       11000                                   
  960 L  ECURITI-PR230 A1000-4.5                                           21000                                   
  963 L1 EMCLARO-RS230 A1000-11.103.7 -71. -80.  80.      100.215.92       21000                                   
  964 L  BCAXIAS-RS525 B 986-11.                                           11000                                   
  965 L  ECAXIAS-RS230 A1010-13.                                           21000                                   
  976 L  BGRAVAT-RS525 B 979-15.                                           11000                                   
  979 L  BNSRITA-RS525 B 973-14.                                           11000                                   
  995 L1 BITA-----0425 B1020-.66518.1-183.-580. 580.      693.7-19.9       11000                                   
  999 L  BIVAIPE-PR525 B100514.9                                           31000                                   
 1010 L1 EJLAC-B-SC230 A1020-9.8316.232.36-220. 220.                       21000                                   
 1015 L  EJOINOR-SC230 A 992-16.                                           21000                                   
 1030 L1 BMACHAD-SC525 B1016.328404.4-.008-570. 570.                       11000                                   
 1041 L1 EPFUNDO-RS230 A1000-4.4 103.7.386-130. 130.      191.130.91       21000                                   
 1047 L1 ESOSORIO-230  A102013.5494.18.379-450. 450.                       21000                                   
 1057 L  ESIDERO-SC230 A1006-12.                                           21000                                   
 1060 L1 BSSANTI-PR525 B102310.8506.9-72.9-525. 525.                       11000                                   
 1069 L  EXANXER-SC230 A1000.005                                     100.  21000                                   
 1210 L  EGRAVA2-RS230 A1000-17.                                           21000                                   
 2458 L  ECASCOE-PR230 A100016.3                                           21000                                   
99999
DLIN
(De )d O d(Pa )NcEP ( R% )( X% )(Mvar)(Tap)(Tmn)(Tmx)(Phs)(Bc  )(Cn)(Ce)Ns(Cq)(1)(2)(3)(4)(5)(6)(7)(8)(9)(10
  814       895 1     .032 1.146       1.01   .9  1.1        814600.600.19600.                                
  814       895 2      .031.1651       1.01   .9  1.1        814600.600.19600.                                
  814       895 3      .031.1651       1.01   .9  1.1        814600.600.19600.                                
  839      1047 1     1.22  7.69 13.81                          323.378.  378.                                
  839      1047 2     1.11  6.92  12.5                          323.378.  378.                                
  839      2458 1       .2  1.03  1.96                          349.377.  377.                                
  839      2458 2      .17  1.03  2.05                          356.410.  410.                                
  839      2458 3      .18  1.08  2.14                          356.356.  356.                                
  856       933 1      .05   .6580.493                          23632727  2727                                
  856      1060 1      .05    .786.055                          21822182  2182                                
  896       897 1      .05   .7479.518                          16371637  1637                                
  933       895 1       .2  2.55  313.                          21102110  2110                                
  933       955 1      .16  2.05250.17                          23632727  2727                                
  933       959 1     .216 2.733333.86                          21822182  2182                                
  934       933 1           1.21       .999   .9  1.1        934672.672.19672.                                
  934       960 1     4.6524.12540.747                          15511773  1773                                
  934      1047 1    3.045 15.3627.123                          258.318.  318.                                
  934      1047 2    3.04115.71827.089                          258.318.  318.                                
  938       946 1      .06 1.031 124.8                          26552655  2655                                
  938       955 1      .26  2.92 306.4                          20362036  2036                                
  938       959 1     .127 1.603195.88                          21102110  2110                                
  939       938 1      .02  1.15      1.027   .9  1.1        939672.806.19672.                                
  939       938 2      .02  1.15      1.027   .9  1.1        939672.672.19672.                                
  939       938 3      .02  1.15      1.027   .9  1.1        939672.672.19672.                                
  947       939 1    2.20311.368 27.69                          242.242.  242.                                
  947       939 2    2.88614.331 32.78                          242.242.  242.                                
  947       946 1      .01 1.897      .9914   .9  1.1        947672.672.19672.                                
  947       946 2      .01 1.935      .9914   .9  1.1        947672.672.19672.                                
  947       946 3      .01 1.935      .9914   .9  1.1        947672.672.19672.                                
  955       946 1     .173 2.807396.29                          26552655  2655                                
  955       964 1      .19  2.35287.84                          16871687  1687                                
  955       979 1      .17  2.82   .39                          26552655  2655                                
  959       895 1      .05   .44 47.58                          21102978  2978                                
  959       895 2      .05   .44 47.58                          21102900  2900                                
  960       959 1     .032  1.28      1.009   .9  1.1        960672.806.19672.                                
  960       959 2     .031  1.28      1.009   .9  1.1        960672.806.19672.                                
  960       959 3     .032  1.28      1.009   .9  1.1        960672.672.19672.                                
  960      1015 1    1.892 9.77616.845                          349.377.  377.                                
  960      1015 2    1.892 9.77616.845                          349.377.  377.                                
  960      1015 3    1.892 9.77616.845                          350.370.  370.                                
  963       965 1      .98  4.95  9.14                          210.292.  292.                                
  963       965 2      .98  4.95  9.14                          210.292.  292.                                
  964       976 1     .073  .916112.17                          16871687  1687                                
  965       964 1      .02 1.211      1.039   .9  1.1        965672.806.19672.                                
  965       964 2      .02 1.233      1.039   .9  1.1        965672.806.19672.                                
  965       964 3      .02 1.233      1.039   .9  1.1        965672.800.19800.                                
  965      1057 1     4.01 20.63 35.43                          232.232.  232.                                
  976       979 1      .03   .3441.861                          21102110  2110                                
  995       964 1    .16433.0339354.87                          21822182  2182                                
  995       979 1      .29  3.65445.49                          21092109  2109                                
  995       979 2      .29  3.72415.13                          22822282  2282                                
  995      1030 1      .07   .92112.26                          21822182  2182                                
  995      1060 1     .176 2.318 253.1                          24643032  3032                                
  995      1060 2     .172  2.17265.15                          23632728  2728                                
  999       896 1     .193  2.43 282.1                          24002400  2400                                
  999       933 1     .159 2.012245.77                          21622724  2724                                
  999      1060 1      .11  2.01235.49                          31823182  3182                                
  999      1060 2      .11  2.01235.49                          31823182  3182                                
 1010       947 1     2.31 11.9221.233                          242.242.  242.                                
 1010       947 2    2.53813.406 23.29                          242.242.  242.                                
 1015       939 1    1.271 6.56211.305                          242.305.  305.                                
 1015       939 2     1.38 7.091 12.51                          242.242.  242.                                
 1030       955 1      .05   .5971.818                          21822182  2182                                
 1030       955 2      .05   .5971.818                          21822200  2200                                
 1041       963 1     4.3821.98839.918                          160.227.  227.                                
 1041       963 2     4.3821.98839.918                          160.227.  227.                                
 1047      1069 1    3.07415.88527.375                          417.450.  450.                                
 1047      1069 2    3.13916.07628.211                          417.417.  417.                                
 1057      1010 1      .94 4.842 8.349                          242.242.  242.                                
 1057      1010 2       .9 4.637  7.98                          242.242.  242.                                
 1057      1010 3      .63   4.3 8.548                          300.300.  300.                                
 1060       897 1      .08  1.17124.58                          16362062  2062                                
 1069      1041 1    1.505 7.77613.402                          258.326.  326.                                
 1069      1041 2    1.503 7.76613.385                          258.326.  326.                                
 1210       976 1     .036 1.217      1.016   .9  1.1       1210672.806.19672.                                
 1210       976 2     .039 1.138      1.016   .9  1.1       1210672.806.19672.                                
 1210       976 3      .03 1.219      1.016   .9  1.1       1210672.806.19672.                                
 2458       896 1           1.27      1.002   .9  1.1       2458600.600.19600.                                
 2458       896 2      .02  1.27      1.002   .9  1.1       2458600.600.19600.                                
 2458       896 3           1.27      1.002   .9  1.1       2458600.600.19600.                                
99999
DCAI
(Num) O  Gr E (U) UOp ( P ) ( Q ) (A) (B) (C) (D) (Vfl) (Vf)
  814     1     3   3 260.4 23.41                   70. 1000 
  839     1     2   2 112.4 37.46                   95. 1000 
  895     1     2   2 -776. 154.1                   70. 1000 
  934     1     1   1 107.7 18.73                   70. 1000 
  939     1     4   4 112.4 42.15                   95. 1000 
  939     2     2   2 215.4 110.5                   95. 1000 
  947     1     4   4 93.66  28.1                   70. 1000 
  947     2     2   2  162.  10.3                   70. 1000 
  960     1     3   3 93.66 35.59                   70. 1000 
  965     1     3   3  281. 79.61                   70. 1000 
  979     1     4   4 394.6  155.                   95. 1000 
  999     2     3   3 -259. 211.7                   70. 1000 
  999     1     1   1 -354. 79.98   5               70. 1000 
 1015     1     4   4 182.6 30.91                   .95 1000 
 1047     1     2   2  56.2 1.873                   70. 1000 
 1057     1     4   4  56.2 20.61                   70. 1000 
 1069     1     4   4 67.44  28.1                   .95 1000 
 1069     2     2   2 -89.9 -3.75                   70. 1000 
 1210     1     3   3 376.5 34.65                   70. 1000 
 2458     1     3   3 243.5 65.56                   70. 1000 
99999
DGEI
(Num) OA Gr E(U)UOpUOn( Pg)( Qg)( Qn)( Qm)(Xtrf) ( Xd)( Xq)( Xl) (fp)( Sn)(Ptu )(Pmn )( R )
  856  S  4 L  4  3  1150.5-27.2-155. 155.   .01                   1. 333. 9999.    0.   0
  897  S  4 L  4  3  1 148.-12.5-155. 155.   .01                   1. 345. 9999.    0.   0
  933  S  1 L  4  4  1149.5-101.-200. 200.   .01                   1. 465. 9999.    0.   0
  995  S  1 L  5  4  1129.5-45.8-145. 145.  4.66                   1. 305. 9999.    0.   0
 1010  S  1 L  1  1  1158.116.18-100. 100.   .01                   1.9999. 9999.    0.   0
 1010  S  2 L  1  1  1158.116.18-120. 120.   .01                   1.9999. 9999.    0.   0
 1010  S  3 D  1  1  1   0.39.56-150. 150.   .01                   1.9999. 9999.    0.   0
 1030  S  4 L  3  3  1134.8-.003-190. 190.   .01                   1. 418. 9999.    0.   0
 1041  S  1 L  2  2  118.711.341 -19.  19.  .001                   1. 41.5 9999.    0.   0
 1041  S  2 L  2  1  165.614.703 -92.  92.  .001                   1.145.5 9999.    0.   0
 1047  S  1 L  6  5  198.821.676 -90.  90.   .01                   1.196.5 9999.    0.   0
 1060  S  1 L  4  3  1 169.-24.3-175. 175.   .01                   1. 350. 9999.    0.   0
99999
DBSH
(NFr) O (NTo) Nc C (Vmn (Vmx Bctrl (Qini) T A (Extr
  814            D 0960 1020   895        C         
(G  O E (U) UOp (Sht ) M
 1        2   0   150. S
FBAN
(NFr) O (NTo) Nc C (Vmn (Vmx Bctrl (Qini) T A (Extr
  938            D 0970 1040   938        C         
(G  O E (U) UOp (Sht ) M
 1        2   0  -150. S
FBAN
(NFr) O (NTo) Nc C (Vmn (Vmx Bctrl (Qini) T A (Extr
  939            D 0950 1020   939   250. C         
(G  O E (U) UOp (Sht ) M
 1        2   2   125. S
FBAN
(NFr) O (NTo) Nc C (Vmn (Vmx Bctrl (Qini) T A (Extr
  946            D 0970 1040   946        C         
(G  O E (U) UOp (Sht ) M
 1        3   0  -150. S
FBAN
(NFr) O (NTo) Nc C (Vmn (Vmx Bctrl (Qini) T A (Extr
  947            D 0950 1020   947   100. C         
(G  O E (U) UOp (Sht ) M
 1        1   1   100. S
FBAN
(NFr) O (NTo) Nc C (Vmn (Vmx Bctrl (Qini) T A (Extr
  955            D 0970 1040   955        C         
(G  O E (U) UOp (Sht ) M
 1        4   0  -100. S
FBAN
(NFr) O (NTo) Nc C (Vmn (Vmx Bctrl (Qini) T A (Extr
  959            D 0970 1040   959        C         
(G  O E (U) UOp (Sht ) M
 1        2   0  -150. S
FBAN
(NFr) O (NTo) Nc C (Vmn (Vmx Bctrl (Qini) T A (Extr
  979            D 0970 1040   979        C         
(G  O E (U) UOp (Sht ) M
 1        4   0  -125. S
FBAN
(NFr) O (NTo) Nc C (Vmn (Vmx Bctrl (Qini) T A (Extr
  995            D 0970 1040   995        C         
(G  O E (U) UOp (Sht ) M
 1        3   0  -150. S
FBAN
(NFr) O (NTo) Nc C (Vmn (Vmx Bctrl (Qini) T A (Extr
 1015            D 0950 1020  1015   200. C         
(G  O E (U) UOp (Sht ) M
 1        2   2   100. S
FBAN
(NFr) O (NTo) Nc C (Vmn (Vmx Bctrl (Qini) T A (Extr
 1210            D 0970 1020  1210   300. C         
(G  O E (U) UOp (Sht ) M
 1        4   3   100. S
FBAN
99999
DGER
(No ) O (Pmn ) (Pmx ) ( Fp) (FpR) (FPn) (Fa) (Fr) (Ag) ( Xq) (Sno) (Est)
  856       0.  1260.    0.  100.                                     0.
  897       0.  1240.    0.  100.                                     0.
  933       0.  1676.    0.  100.                                     0.
  955    -66.5  1760.    0.  100.                                     0.
  963       0.   360.    0.  100.                                     0.
  995       0.  1450.    0.  100.                                     0.
 1030       0.  1140.    0.  100.                                     0.
 1041       0.   226.    0.  100.                                     0.
 1047       0.  1078.    0.  100.                                     0.
 1060       0.  1420.    0.  100.                                     0.
99999
DCAR
(tp) (no ) C (tp) (no ) C (tp) (no ) C (tp) (no ) O (A) (B) (C) (D) (Vfl)
99999
DGLT
(G (Vmn) (Vmx) (Vmne (Vmxe
 A   .95  1.05    .9  1.05
 B   .95  1.05    .9  1.05
99999
DARE
(Ar    (Xchg)     (      Identificacao da area       ) (Xmin) (Xmax)
  1        0.                                      525               
  2        0.                                      230               
  3        0.                               Importação               
99999
DCTG
(Nc) O Pr (       IDENTIFICACAO DA CONTINGENCIA        )
   1    1 Contingência de 839 para 1047                 
(Tp) (El ) (Pa ) Nc (Ext) (DV1) (DV2) (DV3) (DV4) (DV5) (DV6) (DV7) Gr Und
CIRC   839  1047  1                                                       
FCAS
(Nc) O Pr (       IDENTIFICACAO DA CONTINGENCIA        )
   2    1 Contingência de 839 para 2458                 
(Tp) (El ) (Pa ) Nc (Ext) (DV1) (DV2) (DV3) (DV4) (DV5) (DV6) (DV7) Gr Und
CIRC   839  2458  1                                                       
FCAS
(Nc) O Pr (       IDENTIFICACAO DA CONTINGENCIA        )
   3    1 Contingência de 856 para 933                  
(Tp) (El ) (Pa ) Nc (Ext) (DV1) (DV2) (DV3) (DV4) (DV5) (DV6) (DV7) Gr Und
CIRC   856   933  1                                                       
FCAS
(Nc) O Pr (       IDENTIFICACAO DA CONTINGENCIA        )
   4    1 Contingência de 856 para 1060                 
(Tp) (El ) (Pa ) Nc (Ext) (DV1) (DV2) (DV3) (DV4) (DV5) (DV6) (DV7) Gr Und
CIRC   856  1060  1                                                       
FCAS
(Nc) O Pr (       IDENTIFICACAO DA CONTINGENCIA        )
   5    1 Contingência de 896 para 897                  
(Tp) (El ) (Pa ) Nc (Ext) (DV1) (DV2) (DV3) (DV4) (DV5) (DV6) (DV7) Gr Und
CIRC   896   897  1                                                       
FCAS
(Nc) O Pr (       IDENTIFICACAO DA CONTINGENCIA        )
   6    1 Contingência de 933 para 895                  
(Tp) (El ) (Pa ) Nc (Ext) (DV1) (DV2) (DV3) (DV4) (DV5) (DV6) (DV7) Gr Und
CIRC   933   895  1                                                       
FCAS
(Nc) O Pr (       IDENTIFICACAO DA CONTINGENCIA        )
   7    1 Contingência de 933 para 955                  
(Tp) (El ) (Pa ) Nc (Ext) (DV1) (DV2) (DV3) (DV4) (DV5) (DV6) (DV7) Gr Und
CIRC   933   955  1                                                       
FCAS
(Nc) O Pr (       IDENTIFICACAO DA CONTINGENCIA        )
   8    1 Contingência de 933 para 959                  
(Tp) (El ) (Pa ) Nc (Ext) (DV1) (DV2) (DV3) (DV4) (DV5) (DV6) (DV7) Gr Und
CIRC   933   959  1                                                       
FCAS
(Nc) O Pr (       IDENTIFICACAO DA CONTINGENCIA        )
   9    1 Contingência de 934 para 960                  
(Tp) (El ) (Pa ) Nc (Ext) (DV1) (DV2) (DV3) (DV4) (DV5) (DV6) (DV7) Gr Und
CIRC   934   960  1                                                       
FCAS
(Nc) O Pr (       IDENTIFICACAO DA CONTINGENCIA        )
  10    1 Contingência de 934 para 1047                 
(Tp) (El ) (Pa ) Nc (Ext) (DV1) (DV2) (DV3) (DV4) (DV5) (DV6) (DV7) Gr Und
CIRC   934  1047  1                                                       
FCAS
(Nc) O Pr (       IDENTIFICACAO DA CONTINGENCIA        )
  11    1 Contingência de 938 para 946                  
(Tp) (El ) (Pa ) Nc (Ext) (DV1) (DV2) (DV3) (DV4) (DV5) (DV6) (DV7) Gr Und
CIRC   938   946  1                                                       
FCAS
(Nc) O Pr (       IDENTIFICACAO DA CONTINGENCIA        )
  12    1 Contingência de 938 para 955                  
(Tp) (El ) (Pa ) Nc (Ext) (DV1) (DV2) (DV3) (DV4) (DV5) (DV6) (DV7) Gr Und
CIRC   938   955  1                                                       
FCAS
(Nc) O Pr (       IDENTIFICACAO DA CONTINGENCIA        )
  13    1 Contingência de 938 para 959                  
(Tp) (El ) (Pa ) Nc (Ext) (DV1) (DV2) (DV3) (DV4) (DV5) (DV6) (DV7) Gr Und
CIRC   938   959  1                                                       
FCAS
(Nc) O Pr (       IDENTIFICACAO DA CONTINGENCIA        )
  14    1 Contingência de 947 para 939                  
(Tp) (El ) (Pa ) Nc (Ext) (DV1) (DV2) (DV3) (DV4) (DV5) (DV6) (DV7) Gr Und
CIRC   947   939  1                                                       
FCAS
(Nc) O Pr (       IDENTIFICACAO DA CONTINGENCIA        )
  15    1 Contingência de 955 para 946                  
(Tp) (El ) (Pa ) Nc (Ext) (DV1) (DV2) (DV3) (DV4) (DV5) (DV6) (DV7) Gr Und
CIRC   955   946  1                                                       
FCAS
(Nc) O Pr (       IDENTIFICACAO DA CONTINGENCIA        )
  16    1 Contingência de 955 para 964                  
(Tp) (El ) (Pa ) Nc (Ext) (DV1) (DV2) (DV3) (DV4) (DV5) (DV6) (DV7) Gr Und
CIRC   955   964  1                                                       
FCAS
(Nc) O Pr (       IDENTIFICACAO DA CONTINGENCIA        )
  17    1 Contingência de 955 para 979                  
(Tp) (El ) (Pa ) Nc (Ext) (DV1) (DV2) (DV3) (DV4) (DV5) (DV6) (DV7) Gr Und
CIRC   955   979  1                                                       
FCAS
(Nc) O Pr (       IDENTIFICACAO DA CONTINGENCIA        )
  18    1 Contingência de 959 para 895                  
(Tp) (El ) (Pa ) Nc (Ext) (DV1) (DV2) (DV3) (DV4) (DV5) (DV6) (DV7) Gr Und
CIRC   959   895  1                                                       
FCAS
(Nc) O Pr (       IDENTIFICACAO DA CONTINGENCIA        )
  19    1 Contingência de 960 para 1015                 
(Tp) (El ) (Pa ) Nc (Ext) (DV1) (DV2) (DV3) (DV4) (DV5) (DV6) (DV7) Gr Und
CIRC   960  1015  1                                                       
FCAS
(Nc) O Pr (       IDENTIFICACAO DA CONTINGENCIA        )
  20    1 Contingência de 964 para 976                  
(Tp) (El ) (Pa ) Nc (Ext) (DV1) (DV2) (DV3) (DV4) (DV5) (DV6) (DV7) Gr Und
CIRC   964   976  1                                                       
FCAS
(Nc) O Pr (       IDENTIFICACAO DA CONTINGENCIA        )
  21    1 Contingência de 965 para 1057                 
(Tp) (El ) (Pa ) Nc (Ext) (DV1) (DV2) (DV3) (DV4) (DV5) (DV6) (DV7) Gr Und
CIRC   965  1057  1                                                       
FCAS
(Nc) O Pr (       IDENTIFICACAO DA CONTINGENCIA        )
  22    1 Contingência de 976 para 979                  
(Tp) (El ) (Pa ) Nc (Ext) (DV1) (DV2) (DV3) (DV4) (DV5) (DV6) (DV7) Gr Und
CIRC   976   979  1                                                       
FCAS
(Nc) O Pr (       IDENTIFICACAO DA CONTINGENCIA        )
  23    1 Contingência de 995 para 964                  
(Tp) (El ) (Pa ) Nc (Ext) (DV1) (DV2) (DV3) (DV4) (DV5) (DV6) (DV7) Gr Und
CIRC   995   964  1                                                       
FCAS
(Nc) O Pr (       IDENTIFICACAO DA CONTINGENCIA        )
  24    1 Contingência de 995 para 979                  
(Tp) (El ) (Pa ) Nc (Ext) (DV1) (DV2) (DV3) (DV4) (DV5) (DV6) (DV7) Gr Und
CIRC   995   979  1                                                       
FCAS
(Nc) O Pr (       IDENTIFICACAO DA CONTINGENCIA        )
  25    1 Contingência de 995 para 1030                 
(Tp) (El ) (Pa ) Nc (Ext) (DV1) (DV2) (DV3) (DV4) (DV5) (DV6) (DV7) Gr Und
CIRC   995  1030  1                                                       
FCAS
(Nc) O Pr (       IDENTIFICACAO DA CONTINGENCIA        )
  26    1 Contingência de 995 para 1060                 
(Tp) (El ) (Pa ) Nc (Ext) (DV1) (DV2) (DV3) (DV4) (DV5) (DV6) (DV7) Gr Und
CIRC   995  1060  1                                                       
FCAS
(Nc) O Pr (       IDENTIFICACAO DA CONTINGENCIA        )
  27    1 Contingência de 999 para 896                  
(Tp) (El ) (Pa ) Nc (Ext) (DV1) (DV2) (DV3) (DV4) (DV5) (DV6) (DV7) Gr Und
CIRC   999   896  1                                                       
FCAS
(Nc) O Pr (       IDENTIFICACAO DA CONTINGENCIA        )
  28    1 Contingência de 999 para 933                  
(Tp) (El ) (Pa ) Nc (Ext) (DV1) (DV2) (DV3) (DV4) (DV5) (DV6) (DV7) Gr Und
CIRC   999   933  1                                                       
FCAS
(Nc) O Pr (       IDENTIFICACAO DA CONTINGENCIA        )
  29    1 Contingência de 999 para 1060                 
(Tp) (El ) (Pa ) Nc (Ext) (DV1) (DV2) (DV3) (DV4) (DV5) (DV6) (DV7) Gr Und
CIRC   999  1060  1                                                       
FCAS
(Nc) O Pr (       IDENTIFICACAO DA CONTINGENCIA        )
  30    1 Contingência de 1010 para 947                 
(Tp) (El ) (Pa ) Nc (Ext) (DV1) (DV2) (DV3) (DV4) (DV5) (DV6) (DV7) Gr Und
CIRC  1010   947  1                                                       
FCAS
(Nc) O Pr (       IDENTIFICACAO DA CONTINGENCIA        )
  31    1 Contingência de 1015 para 939                 
(Tp) (El ) (Pa ) Nc (Ext) (DV1) (DV2) (DV3) (DV4) (DV5) (DV6) (DV7) Gr Und
CIRC  1015   939  1                                                       
FCAS
(Nc) O Pr (       IDENTIFICACAO DA CONTINGENCIA        )
  32    1 Contingência de 1030 para 955                 
(Tp) (El ) (Pa ) Nc (Ext) (DV1) (DV2) (DV3) (DV4) (DV5) (DV6) (DV7) Gr Und
CIRC  1030   955  1                                                       
FCAS
(Nc) O Pr (       IDENTIFICACAO DA CONTINGENCIA        )
  33    1 Contingência de 1047 para 1069                
(Tp) (El ) (Pa ) Nc (Ext) (DV1) (DV2) (DV3) (DV4) (DV5) (DV6) (DV7) Gr Und
CIRC  1047  1069  1                                                       
FCAS
(Nc) O Pr (       IDENTIFICACAO DA CONTINGENCIA        )
  34    1 Contingência de 1057 para 1010                
(Tp) (El ) (Pa ) Nc (Ext) (DV1) (DV2) (DV3) (DV4) (DV5) (DV6) (DV7) Gr Und
CIRC  1057  1010  1                                                       
FCAS
(Nc) O Pr (       IDENTIFICACAO DA CONTINGENCIA        )
  35    1 Contingência de 1060 para 897                 
(Tp) (El ) (Pa ) Nc (Ext) (DV1) (DV2) (DV3) (DV4) (DV5) (DV6) (DV7) Gr Und
CIRC  1060   897  1                                                       
FCAS
(Nc) O Pr (       IDENTIFICACAO DA CONTINGENCIA        )
  36    1 Contingência de 1069 para 1041                
(Tp) (El ) (Pa ) Nc (Ext) (DV1) (DV2) (DV3) (DV4) (DV5) (DV6) (DV7) Gr Und
CIRC  1069  1041  1                                                       
FCAS
(Nc) O Pr (       IDENTIFICACAO DA CONTINGENCIA        )
  37    1 Contingência de 1041 para 963                 
(Tp) (El ) (Pa ) Nc (Ext) (DV1) (DV2) (DV3) (DV4) (DV5) (DV6) (DV7) Gr Und
CIRC  1041   963  1                                                       
FCAS
(Nc) O Pr (       IDENTIFICACAO DA CONTINGENCIA        )
  38    1 Contingência de 963 para 965                  
(Tp) (El ) (Pa ) Nc (Ext) (DV1) (DV2) (DV3) (DV4) (DV5) (DV6) (DV7) Gr Und
CIRC   963   965  1                                                       
FCAS
(Nc) O Pr (       IDENTIFICACAO DA CONTINGENCIA        )
 201    2 Contigencia dupla de L839 e L1047             
(Tp) (El ) (Pa ) Nc (Ext) (DV1) (DV2) (DV3) (DV4) (DV5) (DV6) (DV7) Gr Und
CIRC   839  1047  1                                                       
CIRC   839  2458  1                                                       
FCAS
(Nc) O Pr (       IDENTIFICACAO DA CONTINGENCIA        )
 202    2 Contigencia dupla de L839 e L1047             
(Tp) (El ) (Pa ) Nc (Ext) (DV1) (DV2) (DV3) (DV4) (DV5) (DV6) (DV7) Gr Und
CIRC   839  1047  1                                                       
CIRC   856   933  1                                                       
FCAS
(Nc) O Pr (       IDENTIFICACAO DA CONTINGENCIA        )
 203    2 Contigencia dupla de L839 e L1047             
(Tp) (El ) (Pa ) Nc (Ext) (DV1) (DV2) (DV3) (DV4) (DV5) (DV6) (DV7) Gr Und
CIRC   839  1047  1                                                       
CIRC   856  1060  1                                                       
FCAS
(Nc) O Pr (       IDENTIFICACAO DA CONTINGENCIA        )
 204    2 Contigencia dupla de L839 e L1047             
(Tp) (El ) (Pa ) Nc (Ext) (DV1) (DV2) (DV3) (DV4) (DV5) (DV6) (DV7) Gr Und
CIRC   839  1047  1                                                       
CIRC   933   895  1                                                       
FCAS
(Nc) O Pr (       IDENTIFICACAO DA CONTINGENCIA        )
 205    2 Contigencia dupla de L839 e L1047             
(Tp) (El ) (Pa ) Nc (Ext) (DV1) (DV2) (DV3) (DV4) (DV5) (DV6) (DV7) Gr Und
CIRC   839  1047  1                                                       
CIRC   933   955  1                                                       
FCAS
(Nc) O Pr (       IDENTIFICACAO DA CONTINGENCIA        )
 206    2 Contigencia dupla de L839 e L1047             
(Tp) (El ) (Pa ) Nc (Ext) (DV1) (DV2) (DV3) (DV4) (DV5) (DV6) (DV7) Gr Und
CIRC   839  1047  1                                                       
CIRC   933   959  1                                                       
FCAS
(Nc) O Pr (       IDENTIFICACAO DA CONTINGENCIA        )
 207    2 Contigencia dupla de L839 e L1047             
(Tp) (El ) (Pa ) Nc (Ext) (DV1) (DV2) (DV3) (DV4) (DV5) (DV6) (DV7) Gr Und
CIRC   839  1047  1                                                       
CIRC   934   960  1                                                       
FCAS
(Nc) O Pr (       IDENTIFICACAO DA CONTINGENCIA        )
 208    2 Contigencia dupla de L839 e L1047             
(Tp) (El ) (Pa ) Nc (Ext) (DV1) (DV2) (DV3) (DV4) (DV5) (DV6) (DV7) Gr Und
CIRC   839  1047  1                                                       
CIRC   934  1047  1                                                       
FCAS
(Nc) O Pr (       IDENTIFICACAO DA CONTINGENCIA        )
 209    2 Contigencia dupla de L839 e L1047             
(Tp) (El ) (Pa ) Nc (Ext) (DV1) (DV2) (DV3) (DV4) (DV5) (DV6) (DV7) Gr Und
CIRC   839  1047  1                                                       
CIRC   938   946  1                                                       
FCAS
(Nc) O Pr (       IDENTIFICACAO DA CONTINGENCIA        )
 210    2 Contigencia dupla de L839 e L1047             
(Tp) (El ) (Pa ) Nc (Ext) (DV1) (DV2) (DV3) (DV4) (DV5) (DV6) (DV7) Gr Und
CIRC   839  1047  1                                                       
CIRC   938   955  1                                                       
FCAS
(Nc) O Pr (       IDENTIFICACAO DA CONTINGENCIA        )
 211    2 Contigencia dupla de L839 e L1047             
(Tp) (El ) (Pa ) Nc (Ext) (DV1) (DV2) (DV3) (DV4) (DV5) (DV6) (DV7) Gr Und
CIRC   839  1047  1                                                       
CIRC   947   939  1                                                       
FCAS
(Nc) O Pr (       IDENTIFICACAO DA CONTINGENCIA        )
 212    2 Contigencia dupla de L839 e L1047             
(Tp) (El ) (Pa ) Nc (Ext) (DV1) (DV2) (DV3) (DV4) (DV5) (DV6) (DV7) Gr Und
CIRC   839  1047  1                                                       
CIRC   955   946  1                                                       
FCAS
(Nc) O Pr (       IDENTIFICACAO DA CONTINGENCIA        )
 213    2 Contigencia dupla de L839 e L1047             
(Tp) (El ) (Pa ) Nc (Ext) (DV1) (DV2) (DV3) (DV4) (DV5) (DV6) (DV7) Gr Und
CIRC   839  1047  1                                                       
CIRC   955   964  1                                                       
FCAS
(Nc) O Pr (       IDENTIFICACAO DA CONTINGENCIA        )
 214    2 Contigencia dupla de L839 e L1047             
(Tp) (El ) (Pa ) Nc (Ext) (DV1) (DV2) (DV3) (DV4) (DV5) (DV6) (DV7) Gr Und
CIRC   839  1047  1                                                       
CIRC   959   895  1                                                       
FCAS
(Nc) O Pr (       IDENTIFICACAO DA CONTINGENCIA        )
 215    2 Contigencia dupla de L839 e L1047             
(Tp) (El ) (Pa ) Nc (Ext) (DV1) (DV2) (DV3) (DV4) (DV5) (DV6) (DV7) Gr Und
CIRC   839  1047  1                                                       
CIRC   960  1015  1                                                       
FCAS
(Nc) O Pr (       IDENTIFICACAO DA CONTINGENCIA        )
 216    2 Contigencia dupla de L839 e L1047             
(Tp) (El ) (Pa ) Nc (Ext) (DV1) (DV2) (DV3) (DV4) (DV5) (DV6) (DV7) Gr Und
CIRC   839  1047  1                                                       
CIRC   965  1057  1                                                       
FCAS
(Nc) O Pr (       IDENTIFICACAO DA CONTINGENCIA        )
 217    2 Contigencia dupla de L839 e L1047             
(Tp) (El ) (Pa ) Nc (Ext) (DV1) (DV2) (DV3) (DV4) (DV5) (DV6) (DV7) Gr Und
CIRC   839  1047  1                                                       
CIRC   976   979  1                                                       
FCAS
(Nc) O Pr (       IDENTIFICACAO DA CONTINGENCIA        )
 218    2 Contigencia dupla de L839 e L1047             
(Tp) (El ) (Pa ) Nc (Ext) (DV1) (DV2) (DV3) (DV4) (DV5) (DV6) (DV7) Gr Und
CIRC   839  1047  1                                                       
CIRC   955   964  1                                                       
FCAS
(Nc) O Pr (       IDENTIFICACAO DA CONTINGENCIA        )
 219    2 Contigencia dupla de L839 e L1047             
(Tp) (El ) (Pa ) Nc (Ext) (DV1) (DV2) (DV3) (DV4) (DV5) (DV6) (DV7) Gr Und
CIRC   839  1047  1                                                       
CIRC   995  1030  1                                                       
FCAS
(Nc) O Pr (       IDENTIFICACAO DA CONTINGENCIA        )
 221    2 Contigencia dupla de L839 e L1047             
(Tp) (El ) (Pa ) Nc (Ext) (DV1) (DV2) (DV3) (DV4) (DV5) (DV6) (DV7) Gr Und
CIRC   839  1047  1                                                       
CIRC   999   896  1                                                       
FCAS
(Nc) O Pr (       IDENTIFICACAO DA CONTINGENCIA        )
 222    2 Contigencia dupla de L839 e L1047             
(Tp) (El ) (Pa ) Nc (Ext) (DV1) (DV2) (DV3) (DV4) (DV5) (DV6) (DV7) Gr Und
CIRC   839  1047  1                                                       
CIRC   999   933  1                                                       
FCAS
(Nc) O Pr (       IDENTIFICACAO DA CONTINGENCIA        )
 223    2 Contigencia dupla de L839 e L1047             
(Tp) (El ) (Pa ) Nc (Ext) (DV1) (DV2) (DV3) (DV4) (DV5) (DV6) (DV7) Gr Und
CIRC   839  1047  1                                                       
CIRC   999  1060  1                                                       
FCAS
(Nc) O Pr (       IDENTIFICACAO DA CONTINGENCIA        )
 224    2 Contigencia dupla de L839 e L1047             
(Tp) (El ) (Pa ) Nc (Ext) (DV1) (DV2) (DV3) (DV4) (DV5) (DV6) (DV7) Gr Und
CIRC   839  1047  1                                                       
CIRC  1010   947  1                                                       
FCAS
(Nc) O Pr (       IDENTIFICACAO DA CONTINGENCIA        )
 225    2 Contigencia dupla de L839 e L1047             
(Tp) (El ) (Pa ) Nc (Ext) (DV1) (DV2) (DV3) (DV4) (DV5) (DV6) (DV7) Gr Und
CIRC   839  1047  1                                                       
CIRC  1015   939  1                                                       
FCAS
(Nc) O Pr (       IDENTIFICACAO DA CONTINGENCIA        )
 226    2 Contigencia dupla de L839 e L1047             
(Tp) (El ) (Pa ) Nc (Ext) (DV1) (DV2) (DV3) (DV4) (DV5) (DV6) (DV7) Gr Und
CIRC   839  1047  1                                                       
CIRC  1030   955  1                                                       
FCAS
(Nc) O Pr (       IDENTIFICACAO DA CONTINGENCIA        )
 227    2 Contigencia dupla de L839 e L1047             
(Tp) (El ) (Pa ) Nc (Ext) (DV1) (DV2) (DV3) (DV4) (DV5) (DV6) (DV7) Gr Und
CIRC   839  1047  1                                                       
CIRC  1047  1069  1                                                       
FCAS
(Nc) O Pr (       IDENTIFICACAO DA CONTINGENCIA        )
 228    2 Contigencia dupla de L839 e L1047             
(Tp) (El ) (Pa ) Nc (Ext) (DV1) (DV2) (DV3) (DV4) (DV5) (DV6) (DV7) Gr Und
CIRC   839  1047  1                                                       
CIRC  1057  1010  1                                                       
FCAS
(Nc) O Pr (       IDENTIFICACAO DA CONTINGENCIA        )
 229    2 Contigencia dupla de L839 e L1047             
(Tp) (El ) (Pa ) Nc (Ext) (DV1) (DV2) (DV3) (DV4) (DV5) (DV6) (DV7) Gr Und
CIRC   839  1047  1                                                       
CIRC  1060   897  1                                                       
FCAS
(Nc) O Pr (       IDENTIFICACAO DA CONTINGENCIA        )
 230    2 Contigencia dupla de L839 e L1047             
(Tp) (El ) (Pa ) Nc (Ext) (DV1) (DV2) (DV3) (DV4) (DV5) (DV6) (DV7) Gr Und
CIRC   839  1047  1                                                       
CIRC  1069  1041  1                                                       
FCAS
(Nc) O Pr (       IDENTIFICACAO DA CONTINGENCIA        )
 231    2 Contigencia dupla de L839 e L1047             
(Tp) (El ) (Pa ) Nc (Ext) (DV1) (DV2) (DV3) (DV4) (DV5) (DV6) (DV7) Gr Und
CIRC   839  1047  1                                                       
CIRC  1041   963  1                                                       
FCAS
(Nc) O Pr (       IDENTIFICACAO DA CONTINGENCIA        )
 232    2 Contigencia dupla de L839 e L1047             
(Tp) (El ) (Pa ) Nc (Ext) (DV1) (DV2) (DV3) (DV4) (DV5) (DV6) (DV7) Gr Und
CIRC   839  1047  1                                                       
CIRC   963   965  1                                                       
FCAS
(Nc) O Pr (       IDENTIFICACAO DA CONTINGENCIA        )
 233    2 Contigencia dupla de L839 e L2458             
(Tp) (El ) (Pa ) Nc (Ext) (DV1) (DV2) (DV3) (DV4) (DV5) (DV6) (DV7) Gr Und
CIRC   839  2458  1                                                       
CIRC   856   933  1                                                       
FCAS
(Nc) O Pr (       IDENTIFICACAO DA CONTINGENCIA        )
 234    2 Contigencia dupla de L839 e L2458             
(Tp) (El ) (Pa ) Nc (Ext) (DV1) (DV2) (DV3) (DV4) (DV5) (DV6) (DV7) Gr Und
CIRC   839  2458  1                                                       
CIRC   856  1060  1                                                       
FCAS
(Nc) O Pr (       IDENTIFICACAO DA CONTINGENCIA        )
 235    2 Contigencia dupla de L839 e L2458             
(Tp) (El ) (Pa ) Nc (Ext) (DV1) (DV2) (DV3) (DV4) (DV5) (DV6) (DV7) Gr Und
CIRC   839  2458  1                                                       
CIRC   933   895  1                                                       
FCAS
(Nc) O Pr (       IDENTIFICACAO DA CONTINGENCIA        )
 236    2 Contigencia dupla de L839 e L2458             
(Tp) (El ) (Pa ) Nc (Ext) (DV1) (DV2) (DV3) (DV4) (DV5) (DV6) (DV7) Gr Und
CIRC   839  2458  1                                                       
CIRC   933   955  1                                                       
FCAS
(Nc) O Pr (       IDENTIFICACAO DA CONTINGENCIA        )
 237    2 Contigencia dupla de L839 e L2458             
(Tp) (El ) (Pa ) Nc (Ext) (DV1) (DV2) (DV3) (DV4) (DV5) (DV6) (DV7) Gr Und
CIRC   839  2458  1                                                       
CIRC   933   959  1                                                       
FCAS
(Nc) O Pr (       IDENTIFICACAO DA CONTINGENCIA        )
 238    2 Contigencia dupla de L839 e L2458             
(Tp) (El ) (Pa ) Nc (Ext) (DV1) (DV2) (DV3) (DV4) (DV5) (DV6) (DV7) Gr Und
CIRC   839  2458  1                                                       
CIRC   934   960  1                                                       
FCAS
(Nc) O Pr (       IDENTIFICACAO DA CONTINGENCIA        )
 239    2 Contigencia dupla de L839 e L2458             
(Tp) (El ) (Pa ) Nc (Ext) (DV1) (DV2) (DV3) (DV4) (DV5) (DV6) (DV7) Gr Und
CIRC   839  2458  1                                                       
CIRC   934  1047  1                                                       
FCAS
(Nc) O Pr (       IDENTIFICACAO DA CONTINGENCIA        )
 240    2 Contigencia dupla de L839 e L2458             
(Tp) (El ) (Pa ) Nc (Ext) (DV1) (DV2) (DV3) (DV4) (DV5) (DV6) (DV7) Gr Und
CIRC   839  2458  1                                                       
CIRC   938   946  1                                                       
FCAS
(Nc) O Pr (       IDENTIFICACAO DA CONTINGENCIA        )
 241    2 Contigencia dupla de L839 e L2458             
(Tp) (El ) (Pa ) Nc (Ext) (DV1) (DV2) (DV3) (DV4) (DV5) (DV6) (DV7) Gr Und
CIRC   839  2458  1                                                       
CIRC   938   955  1                                                       
FCAS
(Nc) O Pr (       IDENTIFICACAO DA CONTINGENCIA        )
 242    2 Contigencia dupla de L839 e L2458             
(Tp) (El ) (Pa ) Nc (Ext) (DV1) (DV2) (DV3) (DV4) (DV5) (DV6) (DV7) Gr Und
CIRC   839  2458  1                                                       
CIRC   947   939  1                                                       
FCAS
(Nc) O Pr (       IDENTIFICACAO DA CONTINGENCIA        )
 243    2 Contigencia dupla de L839 e L2458             
(Tp) (El ) (Pa ) Nc (Ext) (DV1) (DV2) (DV3) (DV4) (DV5) (DV6) (DV7) Gr Und
CIRC   839  2458  1                                                       
CIRC   955   946  1                                                       
FCAS
(Nc) O Pr (       IDENTIFICACAO DA CONTINGENCIA        )
 244    2 Contigencia dupla de L839 e L2458             
(Tp) (El ) (Pa ) Nc (Ext) (DV1) (DV2) (DV3) (DV4) (DV5) (DV6) (DV7) Gr Und
CIRC   839  2458  1                                                       
CIRC   955   964  1                                                       
FCAS
(Nc) O Pr (       IDENTIFICACAO DA CONTINGENCIA        )
 245    2 Contigencia dupla de L839 e L2458             
(Tp) (El ) (Pa ) Nc (Ext) (DV1) (DV2) (DV3) (DV4) (DV5) (DV6) (DV7) Gr Und
CIRC   839  2458  1                                                       
CIRC   959   895  1                                                       
FCAS
(Nc) O Pr (       IDENTIFICACAO DA CONTINGENCIA        )
 246    2 Contigencia dupla de L839 e L2458             
(Tp) (El ) (Pa ) Nc (Ext) (DV1) (DV2) (DV3) (DV4) (DV5) (DV6) (DV7) Gr Und
CIRC   839  2458  1                                                       
CIRC   960  1015  1                                                       
FCAS
(Nc) O Pr (       IDENTIFICACAO DA CONTINGENCIA        )
 247    2 Contigencia dupla de L839 e L2458             
(Tp) (El ) (Pa ) Nc (Ext) (DV1) (DV2) (DV3) (DV4) (DV5) (DV6) (DV7) Gr Und
CIRC   839  2458  1                                                       
CIRC   965  1057  1                                                       
FCAS
(Nc) O Pr (       IDENTIFICACAO DA CONTINGENCIA        )
 248    2 Contigencia dupla de L839 e L2458             
(Tp) (El ) (Pa ) Nc (Ext) (DV1) (DV2) (DV3) (DV4) (DV5) (DV6) (DV7) Gr Und
CIRC   839  2458  1                                                       
CIRC   976   979  1                                                       
FCAS
(Nc) O Pr (       IDENTIFICACAO DA CONTINGENCIA        )
 249    2 Contigencia dupla de L839 e L2458             
(Tp) (El ) (Pa ) Nc (Ext) (DV1) (DV2) (DV3) (DV4) (DV5) (DV6) (DV7) Gr Und
CIRC   839  2458  1                                                       
CIRC   955   964  1                                                       
FCAS
(Nc) O Pr (       IDENTIFICACAO DA CONTINGENCIA        )
 250    2 Contigencia dupla de L839 e L2458             
(Tp) (El ) (Pa ) Nc (Ext) (DV1) (DV2) (DV3) (DV4) (DV5) (DV6) (DV7) Gr Und
CIRC   839  2458  1                                                       
CIRC   995  1030  1                                                       
FCAS
(Nc) O Pr (       IDENTIFICACAO DA CONTINGENCIA        )
 252    2 Contigencia dupla de L839 e L2458             
(Tp) (El ) (Pa ) Nc (Ext) (DV1) (DV2) (DV3) (DV4) (DV5) (DV6) (DV7) Gr Und
CIRC   839  2458  1                                                       
CIRC   999   896  1                                                       
FCAS
(Nc) O Pr (       IDENTIFICACAO DA CONTINGENCIA        )
 253    2 Contigencia dupla de L839 e L2458             
(Tp) (El ) (Pa ) Nc (Ext) (DV1) (DV2) (DV3) (DV4) (DV5) (DV6) (DV7) Gr Und
CIRC   839  2458  1                                                       
CIRC   999   933  1                                                       
FCAS
(Nc) O Pr (       IDENTIFICACAO DA CONTINGENCIA        )
 254    2 Contigencia dupla de L839 e L2458             
(Tp) (El ) (Pa ) Nc (Ext) (DV1) (DV2) (DV3) (DV4) (DV5) (DV6) (DV7) Gr Und
CIRC   839  2458  1                                                       
CIRC   999  1060  1                                                       
FCAS
(Nc) O Pr (       IDENTIFICACAO DA CONTINGENCIA        )
 255    2 Contigencia dupla de L839 e L2458             
(Tp) (El ) (Pa ) Nc (Ext) (DV1) (DV2) (DV3) (DV4) (DV5) (DV6) (DV7) Gr Und
CIRC   839  2458  1                                                       
CIRC  1010   947  1                                                       
FCAS
(Nc) O Pr (       IDENTIFICACAO DA CONTINGENCIA        )
 256    2 Contigencia dupla de L839 e L2458             
(Tp) (El ) (Pa ) Nc (Ext) (DV1) (DV2) (DV3) (DV4) (DV5) (DV6) (DV7) Gr Und
CIRC   839  2458  1                                                       
CIRC  1015   939  1                                                       
FCAS
(Nc) O Pr (       IDENTIFICACAO DA CONTINGENCIA        )
 257    2 Contigencia dupla de L839 e L2458             
(Tp) (El ) (Pa ) Nc (Ext) (DV1) (DV2) (DV3) (DV4) (DV5) (DV6) (DV7) Gr Und
CIRC   839  2458  1                                                       
CIRC  1030   955  1                                                       
FCAS
(Nc) O Pr (       IDENTIFICACAO DA CONTINGENCIA        )
 258    2 Contigencia dupla de L839 e L2458             
(Tp) (El ) (Pa ) Nc (Ext) (DV1) (DV2) (DV3) (DV4) (DV5) (DV6) (DV7) Gr Und
CIRC   839  2458  1                                                       
CIRC  1047  1069  1                                                       
FCAS
(Nc) O Pr (       IDENTIFICACAO DA CONTINGENCIA        )
 259    2 Contigencia dupla de L839 e L2458             
(Tp) (El ) (Pa ) Nc (Ext) (DV1) (DV2) (DV3) (DV4) (DV5) (DV6) (DV7) Gr Und
CIRC   839  2458  1                                                       
CIRC  1057  1010  1                                                       
FCAS
(Nc) O Pr (       IDENTIFICACAO DA CONTINGENCIA        )
 260    2 Contigencia dupla de L839 e L2458             
(Tp) (El ) (Pa ) Nc (Ext) (DV1) (DV2) (DV3) (DV4) (DV5) (DV6) (DV7) Gr Und
CIRC   839  2458  1                                                       
CIRC  1060   897  1                                                       
FCAS
(Nc) O Pr (       IDENTIFICACAO DA CONTINGENCIA        )
 261    2 Contigencia dupla de L839 e L2458             
(Tp) (El ) (Pa ) Nc (Ext) (DV1) (DV2) (DV3) (DV4) (DV5) (DV6) (DV7) Gr Und
CIRC   839  2458  1                                                       
CIRC  1069  1041  1                                                       
FCAS
(Nc) O Pr (       IDENTIFICACAO DA CONTINGENCIA        )
 262    2 Contigencia dupla de L839 e L2458             
(Tp) (El ) (Pa ) Nc (Ext) (DV1) (DV2) (DV3) (DV4) (DV5) (DV6) (DV7) Gr Und
CIRC   839  2458  1                                                       
CIRC  1041   963  1                                                       
FCAS
(Nc) O Pr (       IDENTIFICACAO DA CONTINGENCIA        )
 263    2 Contigencia dupla de L839 e L2458             
(Tp) (El ) (Pa ) Nc (Ext) (DV1) (DV2) (DV3) (DV4) (DV5) (DV6) (DV7) Gr Und
CIRC   839  2458  1                                                       
CIRC   963   965  1                                                       
FCAS
(Nc) O Pr (       IDENTIFICACAO DA CONTINGENCIA        )
 264    2 Contigencia dupla de L856 e L933              
(Tp) (El ) (Pa ) Nc (Ext) (DV1) (DV2) (DV3) (DV4) (DV5) (DV6) (DV7) Gr Und
CIRC   856   933  1                                                       
CIRC   856  1060  1                                                       
FCAS
(Nc) O Pr (       IDENTIFICACAO DA CONTINGENCIA        )
 265    2 Contigencia dupla de L856 e L933              
(Tp) (El ) (Pa ) Nc (Ext) (DV1) (DV2) (DV3) (DV4) (DV5) (DV6) (DV7) Gr Und
CIRC   856   933  1                                                       
CIRC   933   895  1                                                       
FCAS
(Nc) O Pr (       IDENTIFICACAO DA CONTINGENCIA        )
 266    2 Contigencia dupla de L856 e L933              
(Tp) (El ) (Pa ) Nc (Ext) (DV1) (DV2) (DV3) (DV4) (DV5) (DV6) (DV7) Gr Und
CIRC   856   933  1                                                       
CIRC   933   955  1                                                       
FCAS
(Nc) O Pr (       IDENTIFICACAO DA CONTINGENCIA        )
 267    2 Contigencia dupla de L856 e L933              
(Tp) (El ) (Pa ) Nc (Ext) (DV1) (DV2) (DV3) (DV4) (DV5) (DV6) (DV7) Gr Und
CIRC   856   933  1                                                       
CIRC   933   959  1                                                       
FCAS
(Nc) O Pr (       IDENTIFICACAO DA CONTINGENCIA        )
 268    2 Contigencia dupla de L856 e L933              
(Tp) (El ) (Pa ) Nc (Ext) (DV1) (DV2) (DV3) (DV4) (DV5) (DV6) (DV7) Gr Und
CIRC   856   933  1                                                       
CIRC   934   960  1                                                       
FCAS
(Nc) O Pr (       IDENTIFICACAO DA CONTINGENCIA        )
 269    2 Contigencia dupla de L856 e L933              
(Tp) (El ) (Pa ) Nc (Ext) (DV1) (DV2) (DV3) (DV4) (DV5) (DV6) (DV7) Gr Und
CIRC   856   933  1                                                       
CIRC   934  1047  1                                                       
FCAS
(Nc) O Pr (       IDENTIFICACAO DA CONTINGENCIA        )
 270    2 Contigencia dupla de L856 e L933              
(Tp) (El ) (Pa ) Nc (Ext) (DV1) (DV2) (DV3) (DV4) (DV5) (DV6) (DV7) Gr Und
CIRC   856   933  1                                                       
CIRC   938   946  1                                                       
FCAS
(Nc) O Pr (       IDENTIFICACAO DA CONTINGENCIA        )
 271    2 Contigencia dupla de L856 e L933              
(Tp) (El ) (Pa ) Nc (Ext) (DV1) (DV2) (DV3) (DV4) (DV5) (DV6) (DV7) Gr Und
CIRC   856   933  1                                                       
CIRC   938   955  1                                                       
FCAS
(Nc) O Pr (       IDENTIFICACAO DA CONTINGENCIA        )
 272    2 Contigencia dupla de L856 e L933              
(Tp) (El ) (Pa ) Nc (Ext) (DV1) (DV2) (DV3) (DV4) (DV5) (DV6) (DV7) Gr Und
CIRC   856   933  1                                                       
CIRC   947   939  1                                                       
FCAS
(Nc) O Pr (       IDENTIFICACAO DA CONTINGENCIA        )
 273    2 Contigencia dupla de L856 e L933              
(Tp) (El ) (Pa ) Nc (Ext) (DV1) (DV2) (DV3) (DV4) (DV5) (DV6) (DV7) Gr Und
CIRC   856   933  1                                                       
CIRC   955   946  1                                                       
FCAS
(Nc) O Pr (       IDENTIFICACAO DA CONTINGENCIA        )
 274    2 Contigencia dupla de L856 e L933              
(Tp) (El ) (Pa ) Nc (Ext) (DV1) (DV2) (DV3) (DV4) (DV5) (DV6) (DV7) Gr Und
CIRC   856   933  1                                                       
CIRC   955   964  1                                                       
FCAS
(Nc) O Pr (       IDENTIFICACAO DA CONTINGENCIA        )
 275    2 Contigencia dupla de L856 e L933              
(Tp) (El ) (Pa ) Nc (Ext) (DV1) (DV2) (DV3) (DV4) (DV5) (DV6) (DV7) Gr Und
CIRC   856   933  1                                                       
CIRC   959   895  1                                                       
FCAS
(Nc) O Pr (       IDENTIFICACAO DA CONTINGENCIA        )
 276    2 Contigencia dupla de L856 e L933              
(Tp) (El ) (Pa ) Nc (Ext) (DV1) (DV2) (DV3) (DV4) (DV5) (DV6) (DV7) Gr Und
CIRC   856   933  1                                                       
CIRC   960  1015  1                                                       
FCAS
(Nc) O Pr (       IDENTIFICACAO DA CONTINGENCIA        )
 277    2 Contigencia dupla de L856 e L933              
(Tp) (El ) (Pa ) Nc (Ext) (DV1) (DV2) (DV3) (DV4) (DV5) (DV6) (DV7) Gr Und
CIRC   856   933  1                                                       
CIRC   965  1057  1                                                       
FCAS
(Nc) O Pr (       IDENTIFICACAO DA CONTINGENCIA        )
 278    2 Contigencia dupla de L856 e L933              
(Tp) (El ) (Pa ) Nc (Ext) (DV1) (DV2) (DV3) (DV4) (DV5) (DV6) (DV7) Gr Und
CIRC   856   933  1                                                       
CIRC   976   979  1                                                       
FCAS
(Nc) O Pr (       IDENTIFICACAO DA CONTINGENCIA        )
 279    2 Contigencia dupla de L856 e L933              
(Tp) (El ) (Pa ) Nc (Ext) (DV1) (DV2) (DV3) (DV4) (DV5) (DV6) (DV7) Gr Und
CIRC   856   933  1                                                       
CIRC   955   964  1                                                       
FCAS
(Nc) O Pr (       IDENTIFICACAO DA CONTINGENCIA        )
 280    2 Contigencia dupla de L856 e L933              
(Tp) (El ) (Pa ) Nc (Ext) (DV1) (DV2) (DV3) (DV4) (DV5) (DV6) (DV7) Gr Und
CIRC   856   933  1                                                       
CIRC   995  1030  1                                                       
FCAS
(Nc) O Pr (       IDENTIFICACAO DA CONTINGENCIA        )
 282    2 Contigencia dupla de L856 e L933              
(Tp) (El ) (Pa ) Nc (Ext) (DV1) (DV2) (DV3) (DV4) (DV5) (DV6) (DV7) Gr Und
CIRC   856   933  1                                                       
CIRC   999   896  1                                                       
FCAS
(Nc) O Pr (       IDENTIFICACAO DA CONTINGENCIA        )
 283    2 Contigencia dupla de L856 e L933              
(Tp) (El ) (Pa ) Nc (Ext) (DV1) (DV2) (DV3) (DV4) (DV5) (DV6) (DV7) Gr Und
CIRC   856   933  1                                                       
CIRC   999   933  1                                                       
FCAS
(Nc) O Pr (       IDENTIFICACAO DA CONTINGENCIA        )
 284    2 Contigencia dupla de L856 e L933              
(Tp) (El ) (Pa ) Nc (Ext) (DV1) (DV2) (DV3) (DV4) (DV5) (DV6) (DV7) Gr Und
CIRC   856   933  1                                                       
CIRC   999  1060  1                                                       
FCAS
(Nc) O Pr (       IDENTIFICACAO DA CONTINGENCIA        )
 285    2 Contigencia dupla de L856 e L933              
(Tp) (El ) (Pa ) Nc (Ext) (DV1) (DV2) (DV3) (DV4) (DV5) (DV6) (DV7) Gr Und
CIRC   856   933  1                                                       
CIRC  1010   947  1                                                       
FCAS
(Nc) O Pr (       IDENTIFICACAO DA CONTINGENCIA        )
 286    2 Contigencia dupla de L856 e L933              
(Tp) (El ) (Pa ) Nc (Ext) (DV1) (DV2) (DV3) (DV4) (DV5) (DV6) (DV7) Gr Und
CIRC   856   933  1                                                       
CIRC  1015   939  1                                                       
FCAS
(Nc) O Pr (       IDENTIFICACAO DA CONTINGENCIA        )
 287    2 Contigencia dupla de L856 e L933              
(Tp) (El ) (Pa ) Nc (Ext) (DV1) (DV2) (DV3) (DV4) (DV5) (DV6) (DV7) Gr Und
CIRC   856   933  1                                                       
CIRC  1030   955  1                                                       
FCAS
(Nc) O Pr (       IDENTIFICACAO DA CONTINGENCIA        )
 288    2 Contigencia dupla de L856 e L933              
(Tp) (El ) (Pa ) Nc (Ext) (DV1) (DV2) (DV3) (DV4) (DV5) (DV6) (DV7) Gr Und
CIRC   856   933  1                                                       
CIRC  1047  1069  1                                                       
FCAS
(Nc) O Pr (       IDENTIFICACAO DA CONTINGENCIA        )
 289    2 Contigencia dupla de L856 e L933              
(Tp) (El ) (Pa ) Nc (Ext) (DV1) (DV2) (DV3) (DV4) (DV5) (DV6) (DV7) Gr Und
CIRC   856   933  1                                                       
CIRC  1057  1010  1                                                       
FCAS
(Nc) O Pr (       IDENTIFICACAO DA CONTINGENCIA        )
 290    2 Contigencia dupla de L856 e L933              
(Tp) (El ) (Pa ) Nc (Ext) (DV1) (DV2) (DV3) (DV4) (DV5) (DV6) (DV7) Gr Und
CIRC   856   933  1                                                       
CIRC  1060   897  1                                                       
FCAS
(Nc) O Pr (       IDENTIFICACAO DA CONTINGENCIA        )
 291    2 Contigencia dupla de L856 e L933              
(Tp) (El ) (Pa ) Nc (Ext) (DV1) (DV2) (DV3) (DV4) (DV5) (DV6) (DV7) Gr Und
CIRC   856   933  1                                                       
CIRC  1069  1041  1                                                       
FCAS
(Nc) O Pr (       IDENTIFICACAO DA CONTINGENCIA        )
...